56
 energy: -83.737174737935 gnorm: 0.000231517253 xtb: 6.2.2 (655bc02); SMILES:[H][Rh]1([P](C2=CC=CC=C2)(C3=CC=CC=C3)CC[P](C4=CC=CC=C4)1C5=CC=CC=C5)C#O
H           1.03102369234493    1.39935069312443   -1.14857406000617
Rh          1.50021887702718    0.23917285231820   -0.25479220675628
P           3.00968814213483    1.54671329338108    0.78250493698953
C           3.92838804083147    3.00290428870660    0.19209666056084
C           3.14593999738085    4.09261873431393   -0.18450312974338
C           3.73524683969969    5.24564669009394   -0.66299681034884
C           5.11498910043954    5.31680564194844   -0.78251439287054
C           5.89638293336183    4.23071571207800   -0.42843244046939
C           5.30876692183312    3.07354168968290    0.05533621955827
C           2.17918115627602    2.24472194990021    2.24824373202888
C           0.87676994265682    1.82436573317693    2.50072234103187
C           0.20247925242606    2.28270911916871    3.61761713834598
C           0.82625658161749    3.16669011700770    4.48367885782599
C           2.12063784670636    3.59403504767832    4.23125054559755
C           2.79957123431658    3.13531019097534    3.11714124585914
C           4.31523902806415    0.52631143652653    1.63176828356879
C           3.62451224172067   -0.69035810244750    2.23185597624891
P           2.52030446725823   -1.39680778418602    0.91292930602654
C           1.84424102773235   -2.90463278654702    1.67517248092127
C           1.78337441315821   -3.14222773125266    3.04249173564932
C           1.19501021516227   -4.30279788721223    3.51632627141484
C           0.65800188789029   -5.22494592029180    2.63471176077410
C           0.70118718738179   -4.98516051147574    1.26950320944857
C           1.28509151406297   -3.82832951431155    0.79388473222623
C           3.79776743384038   -2.10947233308803   -0.17896005474369
C           4.58646454697453   -3.19747845162642    0.17761613226116
C           5.56143502670857   -3.65304023265609   -0.69099318399701
C           5.75597452983832   -3.02575552224105   -1.91188091533913
C           4.97079056889073   -1.94209123600676   -2.27224766276970
C           3.99135657504141   -1.48668279187645   -1.40879933632446
C           0.11089864833970   -0.75622513348711   -0.92101246476964
O          -0.77506092172088   -1.39844243172628   -1.27791151839364
H           2.06935941482546    4.01454259905615   -0.09821018388755
H           3.12312558434111    6.08888733841219   -0.94739369190304
H           5.57987071818367    6.21661042600947   -1.15774031860740
H           6.97102963479436    4.28261324252665   -0.52983219222997
H           5.93148823948355    2.23206480195180    0.32237418769415
H           0.40176219125583    1.13896725218613    1.78758742953763
H          -0.80842134397111    1.95588493257950    3.81260571476336
H           0.30138212510875    3.52892939493118    5.35554471928002
H           2.60040614980860    4.28892453406051    4.90546090758933
H           3.80640254881545    3.47500732515649    2.91265392243874
H           4.83790894914215    1.11408700128180    2.39235508297750
H           5.03514422070677    0.20055450840610    0.87247612068786
H           2.99208450401150   -0.37718287949329    3.07023550553254
H           4.34395970263104   -1.43670705197726    2.58302043249784
H           2.19257008899478   -2.42708141181413    3.74134073551144
H           1.15417017702279   -4.48591100534821    4.58057433869514
H           0.19966147007590   -6.12771777731970    3.01066466307796
H           0.27463391891722   -5.69909233067785    0.58038279102249
H           1.31738990001828   -3.62288099213046   -0.26942131973113
H           4.42704202234233   -3.68977066677981    1.12792663217167
H           6.17230631649850   -4.50121860243494   -0.41701416369790
H           6.51917299805108   -3.38681162901966   -2.58569558220675
H           5.12060829086665   -1.45748742607273   -3.22589453180912
H           3.34508322875813   -0.64055640317227   -1.67691458921127
