56
 energy: -168.126791169141 gnorm: 0.000382787670 xtb: 6.2.2 (655bc02); SMILES:[H][Rh]1([P](C2=C(F)C(F)=C(F)C(F)=C2F)(C3=C(F)C(F)=C(F)C(F)=C3F)CC[P](C(C(F)=C(C(F)=C4F)F)=C4F)1C5=C(F)C(F)=C(F)C(F)=C5F)C#O
H           1.34591927714346    1.41258044179109   -1.29789566672257
Rh          1.94263898899248    0.25101477288878   -0.51157444285402
P           3.11683535568073    1.62817983420676    0.78791417738144
C           3.67329269009080    3.32115782724293    0.33888886234934
C           2.66080950466763    4.27673333916928    0.26958261197257
F           1.43122914474333    3.90940557103777    0.65069876525693
C           2.88112617833377    5.57638484341999   -0.16065689839175
F           1.88742342082917    6.46202763678351   -0.18710729214718
C           4.16265759382861    5.94669731764827   -0.56543848193808
F           4.40192979164550    7.18593010719390   -0.98113664573677
C           5.18865766732574    5.00735672716698   -0.53167224568493
F           6.41576924037832    5.34980690336959   -0.91996618449727
C           4.93644958058779    3.71089115925083   -0.09010408635063
F           5.95262235015608    2.84707702859870   -0.07827879341603
C           2.32237425467536    2.04867278651039    2.40694980948174
C           1.08306571481748    1.48519525972515    2.68240642927728
F           0.54377794344365    0.65316932377890    1.78176936757111
C           0.39803943645759    1.75125594092615    3.86252160305396
F          -0.77419099802911    1.17287617719755    4.11130004685635
C           0.95752882757638    2.62646021362502    4.79159119331224
F           0.31869613053414    2.89560772372750    5.92425526497720
C           2.19449793057820    3.21473376589044    4.53219766508045
F           2.73423851151418    4.05014732334793    5.41722240583628
C           2.85998537532647    2.91653899300295    3.34850259170002
F           4.05249410281699    3.47773325328742    3.11154126870707
C           4.63939402160671    0.77731756548045    1.41663385748092
C           4.28510071170055   -0.66069807732233    1.78904524244287
P           3.01564229699164   -1.36455842983118    0.60434431356109
C           2.13355254282036   -2.51235820733599    1.74684487300521
C           0.74589182659462   -2.54956895206231    1.67198906769011
F           0.13091010640705   -1.79524690845838    0.75980603461962
C          -0.01218431891769   -3.35453544008175    2.51748386221353
C           0.63262704577515   -4.14560368529592    3.46545751027324
F          -0.07406214992120   -4.91801201436224    4.28266868998785
C           2.02397652607511   -4.12896626676734    3.55438899285550
F           2.64451532471390   -4.88801935735004    4.45602533035942
F          -1.33843328573618   -3.37483792004033    2.42582015671531
C           2.75341859449988   -3.31592828901027    2.69720746928278
F           4.08948161867253   -3.32611096410255    2.76411602377507
C           3.99735228848097   -2.57180397399815   -0.38409685876894
C           3.84306207998939   -3.94818050117431   -0.50556808013158
F           2.96504608800773   -4.61148466439672    0.25495929366993
C           4.58708365872293   -4.68428783769820   -1.42505788539607
F           4.43013511817520   -6.00434492766550   -1.49762585629443
C           5.48955979826428   -4.04518087875807   -2.27001427737673
F           6.20294332039490   -4.74869445231025   -3.14224101390497
C           5.62602195284085   -2.65828110660367   -2.20558184811047
F           6.46225773775308   -2.02685589734841   -3.02552058529910
C           4.87153345511070   -1.95719765732316   -1.27916358351609
F           4.94227166817428   -0.61937773078585   -1.23175051733066
C           1.22252585117349   -0.79811371166633   -1.85151709344734
O           0.86153582216438   -1.47073795142095   -2.70157153852159
H           5.07758784495518    1.31007956600848    2.26315450159776
H           5.36337475552022    0.77931531690130    0.60296216954831
H           3.81096308784133   -0.68027823575242    2.77669459871482
H           5.18128659751336   -1.28282268121991    1.82895582555627
