51
 energy: -70.707276880106 gnorm: 0.000532795987 xtb: 6.2.2 (655bc02); SMILES:O#C[Ni](C#O)([P](C1CCCCC1)(C(C)(C)C)C(C)(C)C)C#O
O           5.23830105067125    2.55560228229768    1.25646692714271
C           4.83352948294141    1.58343474046102    0.81733767057245
Ni          4.11855533548759   -0.00609454875771    0.35832526946011
C           2.31961618469922    0.03485572145452    0.42690354200352
O           1.19999457889371    0.08373675289214    0.64302889723985
P           4.79465363058403   -0.57298077439490   -1.89146348318466
C           4.38447435569600    0.45732955147276   -3.42944736918970
C           2.92350830967741    0.51601600960575   -3.89357504168885
C           2.04418838857049    1.30867196653171   -2.93433806763902
C           2.53777285828835    2.74570688697179   -2.83745075402326
C           3.99291092764896    2.74033530704811   -2.39078753758220
C           4.85168398014204    1.91800264815035   -3.34407268390759
C           6.71769705119690   -0.60133366358006   -2.00649866581916
C           7.30577959545221   -1.86107571565397   -1.36709859980927
C           7.29590876894718   -0.49165375069189   -3.41952388598458
C           7.22234530818519    0.56840194621492   -1.15023336913896
C           4.08627748967262   -2.29833056845015   -2.34450028123455
C           2.58529775886449   -2.25352022013705   -2.02171972043286
C           4.32326661540571   -2.70630795870099   -3.79781344059265
C           4.63642175663377   -3.40833345750836   -1.44132805739713
C           4.80724441225420   -1.28661383117638    1.41433847337185
O           5.22130556997607   -1.99110780501445    2.21262777340411
H           4.95569968363464   -0.03817221730847   -4.22285300351542
H           2.50820741137491   -0.47511851454839   -4.06347944701875
H           2.91893687196024    1.02261801954739   -4.86541546151833
H           2.09460388181852    0.85406360849343   -1.94202291913777
H           1.00572937909598    1.28350714931617   -3.27256354829599
H           1.92933328905121    3.30587343765713   -2.12501101480416
H           2.44939941754376    3.23393924040633   -3.81190878709943
H           4.04894112347894    2.29554481413505   -1.39301318547051
H           4.37838702664312    3.76070352138170   -2.33249054054399
H           5.89578590217491    1.99345920095583   -3.04889580038586
H           4.77459876707418    2.34795297760799   -4.34878252768013
H           7.25088477703279   -2.71428833693813   -2.03587314132726
H           6.80870799945294   -2.09690661504873   -0.42973843335755
H           8.35882207512846   -1.68675005885422   -1.14671095514208
H           6.90714670426865   -1.26519648385520   -4.07702411130660
H           8.37578746514706   -0.62707945235489   -3.35894256879532
H           7.11535547437236    0.47740680738199   -3.87359396652342
H           7.02565140082578    0.36319284750035   -0.09792415302142
H           6.75208255232698    1.51479063671005   -1.39979052162698
H           8.29846329780554    0.68121732744739   -1.27728131315580
H           2.06411591537852   -1.41420259456663   -2.46408895821188
H           2.45355456055657   -2.19675164637728   -0.94113927799284
H           2.10959158150850   -3.16915831071543   -2.37165426984238
H           3.85697556318827   -2.02961814601258   -4.50673775249976
H           3.90104467202919   -3.69807685037074   -3.95891692691358
H           5.38673474100444   -2.76302484332738   -4.01747571832367
H           4.71802702959372   -3.06550915934684   -0.41165463769909
H           5.59761344635763   -3.78292403125315   -1.77247359601129
H           3.94093458028893   -4.24707384668636   -1.45266105834680
