68
 energy: -100.580978348019 gnorm: 0.000103411179 xtb: 6.2.2 (655bc02); SMILES:O#C[Ni](C#O)([P](C1=C(C)C=C(C)C=C1C)(C(C(C)=CC(C)=C2)=C2C)C3=C(C)C=C(C)C=C3C)C#O
O           1.41619381805146    0.35279674651335    1.54775017734431
C           2.25549284400980   -0.00534380050392    0.86145246988606
Ni          3.60384211842125   -0.62332981595432   -0.16441825873936
C           4.77832786165624    0.62790150201090   -0.71720298268540
O           5.56608457078926    1.39755406982969   -1.01883781254542
P           4.91144259820325   -1.94594591609483    1.37386042753850
C           4.59350798043745   -3.74664706861412    1.11732575618339
C           5.58884769797186   -4.71105538564222    0.88273106883252
C           7.04450877231381   -4.52701771010248    1.20026677791611
C           5.22573521364261   -5.95862508775149    0.38965577912432
C           3.90968805976050   -6.30851233328691    0.14573490553500
C           3.54114252160161   -7.64520019322168   -0.41815143524321
C           2.93047942685555   -5.39084824579232    0.49096350516810
C           3.24645793239554   -4.13196278747730    0.97588845457476
C           2.09517663988716   -3.26329916396662    1.38694677570967
C           6.71652484627191   -1.64054039275333    1.13286045057646
C           7.60804568458134   -1.25801197906081    2.15019893371740
C           7.34632647706527   -1.42446628857480    3.61903235557617
C           8.85687451718825   -0.75385129646188    1.80741499172297
C           9.27907981705177   -0.63898966887959    0.49493356207645
C          10.60973874774380   -0.05016588027305    0.14450760115275
C           8.43636354266393   -1.12528452435760   -0.49158868249222
C           7.17856678432384   -1.62664622168027   -0.19730867342950
C           6.39673593761106   -2.19246134830814   -1.34507652092449
C           4.48699392323041   -1.53360780243154    3.12292777884867
C           4.38197159595102   -0.16570821863892    3.43720987676213
C           4.94168273493578    0.92176790893894    2.56973295717999
C           3.78834643185491    0.23223710241522    4.62524507375219
C           3.29817907299333   -0.68479729701415    5.53949203500559
C           2.63776104574991   -0.23858001377200    6.80659977711389
C           3.50311984723197   -2.02720248825798    5.26948176351283
C           4.09896933750034   -2.47156642571016    4.09635217245199
C           4.35109469813044   -3.94851389206824    4.00332844443582
C           3.11510847867812   -1.82680494914961   -1.41511368867530
O           2.84275109009992   -2.63006713754970   -2.17953715791931
H           7.19090887713519   -3.87745137694132    2.05724976748342
H           7.58847162573102   -4.10333578745898    0.35789320458729
H           7.48704527024843   -5.49601258798947    1.42669151044020
H           6.00662715904904   -6.68108603717837    0.19567529584215
H           4.42810783928891   -8.21634910973337   -0.68020202402755
H           2.92736051310766   -7.52223860342442   -1.30922133380248
H           2.96190142468333   -8.21555969362227    0.30758126667554
H           1.88873973165885   -5.65856762100923    0.37927241279548
H           1.57605419487934   -2.86818130682426    0.51234621047882
H           2.41441886432615   -2.43274417556173    2.01182725969757
H           1.37373632426657   -3.85569127723540    1.95025673493536
H           6.84834893338966   -0.55252044628811    4.03929617791650
H           8.29450109859375   -1.54774875300151    4.14034348894238
H           6.73090966614622   -2.29501183879424    3.82210327432131
H           9.52225984463970   -0.44657927472789    2.60252030771581
H          11.19821582585518    0.14481507527902    1.03747027069740
H          10.47190978592173    0.88894533889365   -0.39092355043971
H          11.16734814348949   -0.72326493193182   -0.50486637800009
H           8.76365072740390   -1.11481564162923   -1.52217423231184
H           5.58645648011554   -2.83459879724807   -1.00842960852772
H           7.05674128578488   -2.78141075612201   -1.98229462725569
H           5.98066616886869   -1.39388792754117   -1.96147247886461
H           5.64439919895132    0.53492102843081    1.83557888396332
H           5.46281865491162    1.65198818387202    3.18928280326023
H           4.14283977246827    1.45171203968949    2.04837445354873
H           3.70741182408942    1.28973117871496    4.83626345525781
H           2.08319022177791    0.68341690103589    6.64785136259645
H           3.39045499060312   -0.05085364553507    7.57334376366142
H           1.95878886121335   -1.00174705350988    7.17946434798773
H           3.19268872378327   -2.76197163481845    5.99965131944163
H           4.44223594142083   -4.36044501331499    5.00733029646684
H           5.26573987057908   -4.16717848433445    3.46157699544991
H           3.53188948873696   -4.46512196637510    3.50650071031384
