50
 energy: -68.567362537771 gnorm: 0.000138397666 xtb: 6.2.2 (655bc02); SMILES:O#C[Ni](C#O)([P](CC(C)(C)C)(C(C)(C)C)C(C)(C)C)C#O
O           4.54400426991485    2.37069871355489    0.01305849305623
C           4.23135900175004    1.27316273738852    0.02282998867909
Ni          3.56756637424003   -0.38185911718257    0.26931551748199
C           1.77009608064247   -0.38207231788355    0.12587019148960
O           0.64546084051153   -0.24850217666408    0.26307494496580
P           4.58273925630593   -1.87982809482006   -1.35206968098815
C           4.07848153526748   -2.01335744554361   -3.14237643167678
C           2.93803597507380   -1.14108573115457   -3.70022536478544
C           3.16745295990370    0.33973059678394   -3.41795963515780
C           2.89197540020599   -1.36113766129525   -5.21781690402671
C           1.60592568053092   -1.57670094313946   -3.09521289214098
C           6.43516748520440   -1.45330252267902   -1.52706872607999
C           7.02689576770994   -1.19069334552601   -0.14071072930799
C           7.28131793895094   -2.50273852311343   -2.24409404606677
C           6.50656390396540   -0.13545338339450   -2.30614204705344
C           4.39562930600241   -3.69668596692739   -0.79512577038308
C           2.91466646582168   -3.85073233563828   -0.43713075529471
C           4.75367919215021   -4.77266404940343   -1.82592337102070
C           5.21988606994368   -3.93360100871753    0.46960742302208
C           4.00610528974169   -0.98030196816256    1.91307422101448
O           4.18029961483370   -1.17183877482785    3.02453051772607
H           3.79654251639687   -3.05166745098404   -3.31186980079261
H           4.97376202516170   -1.81973435465537   -3.73460015253377
H           4.08607923581656    0.68862133728648   -3.88299419637787
H           3.23053757363862    0.50555196551884   -2.34203120350592
H           2.34167102977191    0.93198733649903   -3.80621802698477
H           3.81481240618184   -1.02668004167798   -5.68777320930262
H           2.06811609626307   -0.79983482237711   -5.65232185675190
H           2.74845924427753   -2.41368931774799   -5.45478794764658
H           1.65814889371185   -1.50990934089129   -2.01058403749726
H           1.36959519963871   -2.60241007710757   -3.37373423133182
H           0.79832755057734   -0.93563948829447   -3.44119924839976
H           7.13840164787062   -2.10161652305875    0.43765423563368
H           6.39221197101153   -0.50069950309431    0.41739858939507
H           8.01211090134054   -0.73660365738111   -0.24036144935546
H           7.39592851017073   -3.40042489603757   -1.64276293076836
H           8.27693678264668   -2.09385878886519   -2.41631371168900
H           6.86514495723098   -2.77379234288856   -3.21213254958480
H           5.81806576481021    0.59400807251081   -1.88274299620905
H           6.27139339140450   -0.26500767895524   -3.35916810823851
H           7.51331185188528    0.27504084899449   -2.24236042807918
H           2.28147957528550   -3.67824637694754   -1.30446953572584
H           2.63538753600092   -3.14026032228581    0.34219293228965
H           2.72055814370778   -4.85713871900370   -0.06869961181982
H           3.97152599950773   -4.89833464837931   -2.57098364370399
H           4.85147133493633   -5.72567722656232   -1.30701943330837
H           5.68962187659604   -4.57297786783481   -2.33541987462962
H           5.11241007424867   -3.09859927869621    1.15987543248569
H           6.27288772877667   -4.07200912208801    0.23823579363989
H           4.86917177245098   -4.83276439668390    0.97541625734331
